PDE 1897 06 12 21 23 15.50  32.5   76.9   10.0   8.1   8.1 Assam
Event name 101335G
time shift:     6.6161
half duration:   1.3392
latitude:       27.1775
longitude:      87.2315
depth:          41.1894
Mrr:      -1.197760e+22
Mtt:     -1.465068e+21
Mpp:     1.344267e+22
Mrt:      -6.562561e+21
Mrp:      2.147029e+22
Mtp:      3.376717e+22
PDE 1897 06 12 21 23 15.50  32.5   76.9   10.0   8.1   8.1 Assam
Event name 101335G
time shift:     6.8456
half duration:   2.0249
latitude:       27.1692
longitude:      87.2306
depth:          40.8803
Mrr:      -4.140548e+22
Mtt:     -5.064609e+21
Mpp:     4.647009e+22
Mrt:      -2.268618e+22
Mrp:      7.070078e+22
Mtp:      1.111939e+23
PDE 1897 06 12 21 23 15.50  32.5   76.9   10.0   8.1   8.1 Assam
Event name 101335G
time shift:     5.4025
half duration:   2.4316
latitude:       27.1609
longitude:      87.2298
depth:          40.5713
Mrr:      -7.170327e+22
Mtt:     -8.770555e+21
Mpp:     8.047382e+22
Mrt:      -3.928643e+22
Mrp:      1.185062e+23
Mtp:      1.863792e+23
PDE 1897 06 12 21 23 15.50  32.5   76.9   10.0   8.1   8.1 Assam
Event name 101335G
time shift:     5.7861
half duration:   2.6007
latitude:       27.1526
longitude:      87.2289
depth:          40.2623
Mrr:      -8.772638e+22
Mtt:     -1.073046e+22
Mpp:     9.845684e+22
Mrt:      -4.806554e+22
Mrp:      1.394117e+23
Mtp:      2.192582e+23
PDE 1897 06 12 21 23 15.50  32.5   76.9   10.0   8.1   8.1 Assam
Event name 101335G
time shift:     5.7668
half duration:   2.6350
latitude:       27.1442
longitude:      87.2281
depth:          39.9533
Mrr:      -9.124265e+22
Mtt:     -1.116056e+22
Mpp:     1.024032e+23
Mrt:      -4.999212e+22
Mrp:      1.404871e+23
Mtp:      2.209495e+23
PDE 1897 06 12 21 23 15.50  32.5   76.9   10.0   8.1   8.1 Assam
Event name 101335G
time shift:     5.3957
half duration:   2.6850
latitude:       27.1359
longitude:      87.2272
depth:          39.6443
Mrr:      -9.653572e+22
Mtt:     -1.180800e+22
Mpp:     1.083437e+23
Mrt:      -5.289221e+22
Mrp:      1.456661e+23
Mtp:      2.290948e+23
PDE 1897 06 12 21 23 15.50  32.5   76.9   10.0   8.1   8.1 Assam
Event name 101335G
time shift:     5.1866
half duration:   2.6972
latitude:       27.1276
longitude:      87.2264
depth:          39.3353
Mrr:      -9.785532e+22
Mtt:     -1.196941e+22
Mpp:     1.098247e+23
Mrt:      -5.361522e+22
Mrp:      1.451253e+23
Mtp:      2.282441e+23
PDE 1897 06 12 21 23 15.50  32.5   76.9   10.0   8.1   8.1 Assam
Event name 101335G
time shift:     4.8673
half duration:   2.6698
latitude:       27.1193
longitude:      87.2255
depth:          39.0262
Mrr:      -9.490636e+22
Mtt:     -1.160870e+22
Mpp:     1.065151e+23
Mrt:      -5.199948e+22
Mrp:      1.429536e+23
Mtp:      2.248287e+23
PDE 1897 06 12 21 23 15.50  32.5   76.9   10.0   8.1   8.1 Assam
Event name 101335G
time shift:     4.5409
half duration:   2.6547
latitude:       27.1109
longitude:      87.2247
depth:          38.7172
Mrr:      -9.329996e+22
Mtt:     -1.141221e+22
Mpp:     1.047122e+23
Mrt:      -5.111932e+22
Mrp:      1.477370e+23
Mtp:      2.323517e+23
PDE 1897 06 12 21 23 15.50  32.5   76.9   10.0   8.1   8.1 Assam
Event name 101335G
time shift:     3.4653
half duration:   2.6779
latitude:       27.1026
longitude:      87.2238
depth:          38.4082
Mrr:      -9.577099e+22
Mtt:     -1.171446e+22
Mpp:     1.074854e+23
Mrt:      -5.247321e+22
Mrp:      1.617805e+23
Mtp:      2.544385e+23
PDE 1897 06 12 21 23 15.50  32.5   76.9   10.0   8.1   8.1 Assam
Event name 101335G
time shift:     3.8990
half duration:   2.6916
latitude:       27.0943
longitude:      87.2230
depth:          38.0992
Mrr:      -9.725042e+22
Mtt:     -1.189542e+22
Mpp:     1.091458e+23
Mrt:      -5.328379e+22
Mrp:      1.698260e+23
Mtp:      2.670920e+23
PDE 1897 06 12 21 23 15.50  32.5   76.9   10.0   8.1   8.1 Assam
Event name 101335G
time shift:     3.7404
half duration:   2.6949
latitude:       27.0860
longitude:      87.2221
depth:          37.7902
Mrr:      -9.760566e+22
Mtt:     -1.193887e+22
Mpp:     1.095445e+23
Mrt:      -5.347843e+22
Mrp:      1.756464e+23
Mtp:      2.762459e+23
PDE 1897 06 12 21 23 15.50  32.5   76.9   10.0   8.1   8.1 Assam
Event name 101335G
time shift:     4.0509
half duration:   2.7040
latitude:       27.0777
longitude:      87.2213
depth:          37.4812
Mrr:      -9.859274e+22
Mtt:     -1.205960e+22
Mpp:     1.106523e+23
Mrt:      -5.401925e+22
Mrp:      1.760152e+23
Mtp:      2.768260e+23
PDE 1897 06 12 21 23 15.50  32.5   76.9   10.0   8.1   8.1 Assam
Event name 101335G
time shift:     3.3203
half duration:   2.6993
latitude:       27.0693
longitude:      87.2204
depth:          37.1721
Mrr:      -9.808679e+22
Mtt:     -1.199772e+22
Mpp:     1.100845e+23
Mrt:      -5.374204e+22
Mrp:      1.712915e+23
Mtp:      2.693967e+23
PDE 1897 06 12 21 23 15.50  32.5   76.9   10.0   8.1   8.1 Assam
Event name 101335G
time shift:     2.7475
half duration:   2.6939
latitude:       27.0610
longitude:      87.2196
depth:          36.8631
Mrr:      -9.749504e+22
Mtt:     -1.192534e+22
Mpp:     1.094204e+23
Mrt:      -5.341782e+22
Mrp:      1.699555e+23
Mtp:      2.672957e+23
PDE 1897 06 12 21 23 15.50  32.5   76.9   10.0   8.1   8.1 Assam
Event name 101335G
time shift:     2.8377
half duration:   2.7098
latitude:       27.0527
longitude:      87.2187
depth:          36.5541
Mrr:      -9.923256e+22
Mtt:     -1.213787e+22
Mpp:     1.113704e+23
Mrt:      -5.436981e+22
Mrp:      1.802900e+23
Mtp:      2.835491e+23
PDE 1897 06 12 21 23 15.50  32.5   76.9   10.0   8.1   8.1 Assam
Event name 101335G
time shift:     2.2962
half duration:   2.7436
latitude:       27.0444
longitude:      87.2179
depth:          36.2451
Mrr:      -1.029972e+23
Mtt:     -1.259834e+22
Mpp:     1.155955e+23
Mrt:      -5.643245e+22
Mrp:      1.847703e+23
Mtp:      2.905954e+23
PDE 1897 06 12 21 23 15.50  32.5   76.9   10.0   8.1   8.1 Assam
Event name 101335G
time shift:     2.6059
half duration:   2.7376
latitude:       27.0360
longitude:      87.2170
depth:          35.9361
Mrr:      -1.023228e+23
Mtt:     -1.251586e+22
Mpp:     1.148387e+23
Mrt:      -5.606297e+22
Mrp:      1.952311e+23
Mtp:      3.070475e+23
PDE 1897 06 12 21 23 15.50  32.5   76.9   10.0   8.1   8.1 Assam
Event name 101335G
time shift:     2.1693
half duration:   2.7398
latitude:       27.0277
longitude:      87.2162
depth:          35.6271
Mrr:      -1.025688e+23
Mtt:     -1.254595e+22
Mpp:     1.151148e+23
Mrt:      -5.619777e+22
Mrp:      2.002690e+23
Mtp:      3.149708e+23
PDE 1897 06 12 21 23 15.50  32.5   76.9   10.0   8.1   8.1 Assam
Event name 101335G
time shift:     2.2900
half duration:   2.7298
latitude:       27.0194
longitude:      87.2153
depth:          35.3180
Mrr:      -1.014452e+23
Mtt:     -1.240851e+22
Mpp:     1.138537e+23
Mrt:      -5.558211e+22
Mrp:      2.118613e+23
Mtp:      3.332025e+23
PDE 1897 06 12 21 23 15.50  32.5   76.9   10.0   8.1   8.1 Assam
Event name 101335G
time shift:     2.4898
half duration:   2.7326
latitude:       27.0111
longitude:      87.2145
depth:          35.0090
Mrr:      -1.017549e+23
Mtt:     -1.244639e+22
Mpp:     1.142013e+23
Mrt:      -5.575180e+22
Mrp:      2.193448e+23
Mtp:      3.449722e+23
PDE 1897 06 12 21 23 15.50  32.5   76.9   10.0   8.1   8.1 Assam
Event name 101335G
time shift:     1.4194
half duration:   2.7244
latitude:       27.0028
longitude:      87.2136
depth:          34.7000
Mrr:      -1.008476e+23
Mtt:     -1.233542e+22
Mpp:     1.131830e+23
Mrt:      -5.525471e+22
Mrp:      2.277426e+23
Mtp:      3.581796e+23
PDE 1897 06 12 21 23 15.50  32.5   76.9   10.0   8.1   8.1 Assam
Event name 101335G
time shift:     2.0448
half duration:   2.6899
latitude:       26.9944
longitude:      87.2128
depth:          34.3910
Mrr:      -9.706491e+22
Mtt:     -1.187272e+22
Mpp:     1.089376e+23
Mrt:      -5.318215e+22
Mrp:      2.395766e+23
Mtp:      3.767915e+23
PDE 1897 06 12 21 23 15.50  32.5   76.9   10.0   8.1   8.1 Assam
Event name 101335G
time shift:     1.7347
half duration:   2.6979
latitude:       26.9861
longitude:      87.2119
depth:          34.0820
Mrr:      -9.792920e+22
Mtt:     -1.197844e+22
Mpp:     1.099076e+23
Mrt:      -5.365570e+22
Mrp:      2.349600e+23
Mtp:      3.695307e+23
PDE 1897 06 12 21 23 15.50  32.5   76.9   10.0   8.1   8.1 Assam
Event name 101335G
time shift:     2.4058
half duration:   2.7120
latitude:       26.9778
longitude:      87.2111
depth:          33.7729
Mrr:      -9.947664e+22
Mtt:     -1.216772e+22
Mpp:     1.116444e+23
Mrt:      -5.450354e+22
Mrp:      2.299078e+23
Mtp:      3.615849e+23
PDE 1897 06 12 21 23 15.50  32.5   76.9   10.0   8.1   8.1 Assam
Event name 101335G
time shift:     2.6231
half duration:   2.7450
latitude:       26.9695
longitude:      87.2102
depth:          33.4639
Mrr:      -1.031536e+23
Mtt:     -1.261748e+22
Mpp:     1.157711e+23
Mrt:      -5.651817e+22
Mrp:      2.236046e+23
Mtp:      3.516717e+23
PDE 1897 06 12 21 23 15.50  32.5   76.9   10.0   8.1   8.1 Assam
Event name 101335G
time shift:     2.5179
half duration:   2.7531
latitude:       26.9611
longitude:      87.2094
depth:          33.1549
Mrr:      -1.040624e+23
Mtt:     -1.272864e+22
Mpp:     1.167911e+23
Mrt:      -5.701611e+22
Mrp:      2.187957e+23
Mtp:      3.441086e+23
PDE 1897 06 12 21 23 15.50  32.5   76.9   10.0   8.1   8.1 Assam
Event name 101335G
time shift:     3.6434
half duration:   2.7445
latitude:       26.9528
longitude:      87.2085
depth:          32.8459
Mrr:      -1.030978e+23
Mtt:     -1.261065e+22
Mpp:     1.157084e+23
Mrt:      -5.648758e+22
Mrp:      2.263610e+23
Mtp:      3.560067e+23
PDE 1897 06 12 21 23 15.50  32.5   76.9   10.0   8.1   8.1 Assam
Event name 101335G
time shift:     3.4890
half duration:   2.7109
latitude:       26.9445
longitude:      87.2077
depth:          32.5369
Mrr:      -9.935886e+22
Mtt:     -1.215331e+22
Mpp:     1.115122e+23
Mrt:      -5.443901e+22
Mrp:      2.235433e+23
Mtp:      3.515753e+23
PDE 1897 06 12 21 23 15.50  32.5   76.9   10.0   8.1   8.1 Assam
Event name 101335G
time shift:     3.9770
half duration:   2.6695
latitude:       26.9362
longitude:      87.2068
depth:          32.2279
Mrr:      -9.487297e+22
Mtt:     -1.160461e+22
Mpp:     1.064776e+23
Mrt:      -5.198118e+22
Mrp:      2.153411e+23
Mtp:      3.386753e+23
PDE 1897 06 12 21 23 15.50  32.5   76.9   10.0   8.1   8.1 Assam
Event name 101335G
time shift:     4.0397
half duration:   2.6253
latitude:       26.9279
longitude:      87.2060
depth:          31.9188
Mrr:      -9.023921e+22
Mtt:     -1.103782e+22
Mpp:     1.012770e+23
Mrt:      -4.944233e+22
Mrp:      2.159428e+23
Mtp:      3.396216e+23
PDE 1897 06 12 21 23 15.50  32.5   76.9   10.0   8.1   8.1 Assam
Event name 101335G
time shift:     4.7328
half duration:   2.6197
latitude:       26.9195
longitude:      87.2051
depth:          31.6098
Mrr:      -8.966019e+22
Mtt:     -1.096700e+22
Mpp:     1.006272e+23
Mrt:      -4.912508e+22
Mrp:      2.159233e+23
Mtp:      3.395910e+23
PDE 1897 06 12 21 23 15.50  32.5   76.9   10.0   8.1   8.1 Assam
Event name 101335G
time shift:     4.2760
half duration:   2.6399
latitude:       26.9112
longitude:      87.2043
depth:          31.3008
Mrr:      -9.174959e+22
Mtt:     -1.122257e+22
Mpp:     1.029722e+23
Mrt:      -5.026987e+22
Mrp:      2.147540e+23
Mtp:      3.377520e+23
PDE 1897 06 12 21 23 15.50  32.5   76.9   10.0   8.1   8.1 Assam
Event name 101335G
time shift:     4.5493
half duration:   2.6415
latitude:       26.9029
longitude:      87.2034
depth:          30.9918
Mrr:      -9.192023e+22
Mtt:     -1.124344e+22
Mpp:     1.031637e+23
Mrt:      -5.036337e+22
Mrp:      2.158855e+23
Mtp:      3.395315e+23
PDE 1897 06 12 21 23 15.50  32.5   76.9   10.0   8.1   8.1 Assam
Event name 101335G
time shift:     4.2629
half duration:   2.6258
latitude:       26.8946
longitude:      87.2026
depth:          30.6828
Mrr:      -9.028333e+22
Mtt:     -1.104322e+22
Mpp:     1.013266e+23
Mrt:      -4.946650e+22
Mrp:      2.161156e+23
Mtp:      3.398934e+23
PDE 1897 06 12 21 23 15.50  32.5   76.9   10.0   8.1   8.1 Assam
Event name 101335G
time shift:     3.9598
half duration:   2.6167
latitude:       26.8862
longitude:      87.2017
depth:          30.3738
Mrr:      -8.934837e+22
Mtt:     -1.092886e+22
Mpp:     1.002772e+23
Mrt:      -4.895423e+22
Mrp:      2.130044e+23
Mtp:      3.350003e+23
PDE 1897 06 12 21 23 15.50  32.5   76.9   10.0   8.1   8.1 Assam
Event name 101335G
time shift:     4.6518
half duration:   2.5880
latitude:       26.8779
longitude:      87.2009
depth:          30.0647
Mrr:      -8.644637e+22
Mtt:     -1.057389e+22
Mpp:     9.702026e+22
Mrt:      -4.736422e+22
Mrp:      2.119620e+23
Mtp:      3.333609e+23
PDE 1897 06 12 21 23 15.50  32.5   76.9   10.0   8.1   8.1 Assam
Event name 101335G
time shift:     5.3977
half duration:   2.5760
latitude:       26.8696
longitude:      87.2000
depth:          29.7557
Mrr:      -8.524729e+22
Mtt:     -1.042722e+22
Mpp:     9.567451e+22
Mrt:      -4.670724e+22
Mrp:      2.144881e+23
Mtp:      3.373337e+23
PDE 1897 06 12 21 23 15.50  32.5   76.9   10.0   8.1   8.1 Assam
Event name 101335G
time shift:     5.8957
half duration:   2.5877
latitude:       26.8613
longitude:      87.1992
depth:          29.4467
Mrr:      -8.641449e+22
Mtt:     -1.056999e+22
Mpp:     9.698448e+22
Mrt:      -4.734675e+22
Mrp:      2.170115e+23
Mtp:      3.413024e+23
PDE 1897 06 12 21 23 15.50  32.5   76.9   10.0   8.1   8.1 Assam
Event name 101335G
time shift:     5.2729
half duration:   2.6189
latitude:       26.8530
longitude:      87.1983
depth:          29.1377
Mrr:      -8.958054e+22
Mtt:     -1.095726e+22
Mpp:     1.005378e+23
Mrt:      -4.908144e+22
Mrp:      2.116022e+23
Mtp:      3.327949e+23
PDE 1897 06 12 21 23 15.50  32.5   76.9   10.0   8.1   8.1 Assam
Event name 101335G
time shift:     4.8732
half duration:   2.6450
latitude:       26.8446
longitude:      87.1975
depth:          28.8287
Mrr:      -9.228145e+22
Mtt:     -1.128762e+22
Mpp:     1.035691e+23
Mrt:      -5.056128e+22
Mrp:      2.123184e+23
Mtp:      3.339214e+23
PDE 1897 06 12 21 23 15.50  32.5   76.9   10.0   8.1   8.1 Assam
Event name 101335G
time shift:     6.4499
half duration:   2.6418
latitude:       26.8363
longitude:      87.1966
depth:          28.5197
Mrr:      -9.195274e+22
Mtt:     -1.124742e+22
Mpp:     1.032002e+23
Mrt:      -5.038118e+22
Mrp:      2.184326e+23
Mtp:      3.435375e+23
PDE 1897 06 12 21 23 15.50  32.5   76.9   10.0   8.1   8.1 Assam
Event name 101335G
time shift:     6.8849
half duration:   2.6377
latitude:       26.8280
longitude:      87.1958
depth:          28.2106
Mrr:      -9.152050e+22
Mtt:     -1.119455e+22
Mpp:     1.027150e+23
Mrt:      -5.014435e+22
Mrp:      2.257677e+23
Mtp:      3.550736e+23
PDE 1897 06 12 21 23 15.50  32.5   76.9   10.0   8.1   8.1 Assam
Event name 101335G
time shift:     6.2957
half duration:   2.6540
latitude:       27.1783
longitude:      87.2211
depth:          41.1894
Mrr:      -9.323139e+22
Mtt:     -1.140382e+22
Mpp:     1.046352e+23
Mrt:      -5.108175e+22
Mrp:      2.339436e+23
Mtp:      3.679322e+23
PDE 1897 06 12 21 23 15.50  32.5   76.9   10.0   8.1   8.1 Assam
Event name 101335G
time shift:     6.7375
half duration:   2.6571
latitude:       27.1700
longitude:      87.2202
depth:          40.8803
Mrr:      -9.355474e+22
Mtt:     -1.144337e+22
Mpp:     1.049981e+23
Mrt:      -5.125892e+22
Mrp:      2.446067e+23
Mtp:      3.847025e+23
PDE 1897 06 12 21 23 15.50  32.5   76.9   10.0   8.1   8.1 Assam
Event name 101335G
time shift:     5.8712
half duration:   2.6781
latitude:       27.1617
longitude:      87.2194
depth:          40.5713
Mrr:      -9.579167e+22
Mtt:     -1.171699e+22
Mpp:     1.075087e+23
Mrt:      -5.248454e+22
Mrp:      2.472544e+23
Mtp:      3.888665e+23
PDE 1897 06 12 21 23 15.50  32.5   76.9   10.0   8.1   8.1 Assam
Event name 101335G
time shift:     5.9574
half duration:   2.6893
latitude:       27.1533
longitude:      87.2185
depth:          40.2623
Mrr:      -9.699937e+22
Mtt:     -1.186471e+22
Mpp:     1.088641e+23
Mrt:      -5.314624e+22
Mrp:      2.423795e+23
Mtp:      3.811996e+23
PDE 1897 06 12 21 23 15.50  32.5   76.9   10.0   8.1   8.1 Assam
Event name 101335G
time shift:     5.5417
half duration:   2.6921
latitude:       27.1450
longitude:      87.2177
depth:          39.9533
Mrr:      -9.729788e+22
Mtt:     -1.190122e+22
Mpp:     1.091991e+23
Mrt:      -5.330980e+22
Mrp:      2.402940e+23
Mtp:      3.779197e+23
PDE 1897 06 12 21 23 15.50  32.5   76.9   10.0   8.1   8.1 Assam
Event name 101335G
time shift:     4.8769
half duration:   2.6875
latitude:       27.1367
longitude:      87.2168
depth:          39.6443
Mrr:      -9.679980e+22
Mtt:     -1.184030e+22
Mpp:     1.086401e+23
Mrt:      -5.303689e+22
Mrp:      2.375937e+23
Mtp:      3.736728e+23
PDE 1897 06 12 21 23 15.50  32.5   76.9   10.0   8.1   8.1 Assam
Event name 101335G
time shift:     4.3746
half duration:   2.6702
latitude:       27.1284
longitude:      87.2160
depth:          39.3353
Mrr:      -9.494845e+22
Mtt:     -1.161385e+22
Mpp:     1.065623e+23
Mrt:      -5.202254e+22
Mrp:      2.284103e+23
Mtp:      3.592298e+23
PDE 1897 06 12 21 23 15.50  32.5   76.9   10.0   8.1   8.1 Assam
Event name 101335G
time shift:     4.2627
half duration:   2.6665
latitude:       27.1200
longitude:      87.2151
depth:          39.0262
Mrr:      -9.455603e+22
Mtt:     -1.156584e+22
Mpp:     1.061219e+23
Mrt:      -5.180753e+22
Mrp:      2.209488e+23
Mtp:      3.474947e+23
PDE 1897 06 12 21 23 15.50  32.5   76.9   10.0   8.1   8.1 Assam
Event name 101335G
time shift:     5.1644
half duration:   2.6420
latitude:       27.1117
longitude:      87.2143
depth:          38.7172
Mrr:      -9.196857e+22
Mtt:     -1.124935e+22
Mpp:     1.032179e+23
Mrt:      -5.038985e+22
Mrp:      2.138973e+23
Mtp:      3.364045e+23
PDE 1897 06 12 21 23 15.50  32.5   76.9   10.0   8.1   8.1 Assam
Event name 101335G
time shift:     3.4317
half duration:   2.6301
latitude:       27.1034
longitude:      87.2134
depth:          38.4082
Mrr:      -9.073585e+22
Mtt:     -1.109857e+22
Mpp:     1.018344e+23
Mrt:      -4.971444e+22
Mrp:      2.000448e+23
Mtp:      3.146182e+23
PDE 1897 06 12 21 23 15.50  32.5   76.9   10.0   8.1   8.1 Assam
Event name 101335G
time shift:     4.1857
half duration:   2.6139
latitude:       27.0951
longitude:      87.2126
depth:          38.0992
Mrr:      -8.907068e+22
Mtt:     -1.089489e+22
Mpp:     9.996558e+22
Mrt:      -4.880209e+22
Mrp:      1.930962e+23
Mtp:      3.036900e+23
PDE 1897 06 12 21 23 15.50  32.5   76.9   10.0   8.1   8.1 Assam
Event name 101335G
time shift:     3.4580
half duration:   2.5845
latitude:       27.0868
longitude:      87.2117
depth:          37.7902
Mrr:      -8.609788e+22
Mtt:     -1.053127e+22
Mpp:     9.662914e+22
Mrt:      -4.717328e+22
Mrp:      1.889748e+23
Mtp:      2.972080e+23
PDE 1897 06 12 21 23 15.50  32.5   76.9   10.0   8.1   8.1 Assam
Event name 101335G
time shift:     3.4361
half duration:   2.5555
latitude:       27.0784
longitude:      87.2109
depth:          37.4812
Mrr:      -8.323287e+22
Mtt:     -1.018083e+22
Mpp:     9.341370e+22
Mrt:      -4.560354e+22
Mrp:      1.835507e+23
Mtp:      2.886773e+23
PDE 1897 06 12 21 23 15.50  32.5   76.9   10.0   8.1   8.1 Assam
Event name 101335G
time shift:     2.7960
half duration:   2.5424
latitude:       27.0701
longitude:      87.2100
depth:          37.1721
Mrr:      -8.195745e+22
Mtt:     -1.002482e+22
Mpp:     9.198227e+22
Mrt:      -4.490473e+22
Mrp:      1.759669e+23
Mtp:      2.767500e+23
PDE 1897 06 12 21 23 15.50  32.5   76.9   10.0   8.1   8.1 Assam
Event name 101335G
time shift:     3.4357
half duration:   2.5620
latitude:       27.0618
longitude:      87.2092
depth:          36.8631
Mrr:      -8.387028e+22
Mtt:     -1.025879e+22
Mpp:     9.412907e+22
Mrt:      -4.595277e+22
Mrp:      1.701494e+23
Mtp:      2.676006e+23
PDE 1897 06 12 21 23 15.50  32.5   76.9   10.0   8.1   8.1 Assam
Event name 101335G
time shift:     2.5603
half duration:   2.5643
latitude:       27.0535
longitude:      87.2083
depth:          36.5541
Mrr:      -8.409359e+22
Mtt:     -1.028611e+22
Mpp:     9.437969e+22
Mrt:      -4.607512e+22
Mrp:      1.724252e+23
Mtp:      2.711798e+23
PDE 1897 06 12 21 23 15.50  32.5   76.9   10.0   8.1   8.1 Assam
Event name 101335G
time shift:     2.2501
half duration:   2.5525
latitude:       27.0451
longitude:      87.2075
depth:          36.2451
Mrr:      -8.293755e+22
Mtt:     -1.014470e+22
Mpp:     9.308226e+22
Mrt:      -4.544173e+22
Mrp:      1.680058e+23
Mtp:      2.642292e+23
PDE 1897 06 12 21 23 15.50  32.5   76.9   10.0   8.1   8.1 Assam
Event name 101335G
time shift:     1.9007
half duration:   2.5515
latitude:       27.0368
longitude:      87.2066
depth:          35.9361
Mrr:      -8.283992e+22
Mtt:     -1.013276e+22
Mpp:     9.297268e+22
Mrt:      -4.538824e+22
Mrp:      1.595407e+23
Mtp:      2.509159e+23
PDE 1897 06 12 21 23 15.50  32.5   76.9   10.0   8.1   8.1 Assam
Event name 101335G
time shift:     2.1026
half duration:   2.5577
latitude:       27.0285
longitude:      87.2058
depth:          35.6271
Mrr:      -8.344222e+22
Mtt:     -1.020643e+22
Mpp:     9.364865e+22
Mrt:      -4.571824e+22
Mrp:      1.619646e+23
Mtp:      2.547281e+23
PDE 1897 06 12 21 23 15.50  32.5   76.9   10.0   8.1   8.1 Assam
Event name 101335G
time shift:     2.2835
half duration:   2.6065
latitude:       27.0202
longitude:      87.2049
depth:          35.3180
Mrr:      -8.831210e+22
Mtt:     -1.080210e+22
Mpp:     9.911421e+22
Mrt:      -4.838646e+22
Mrp:      1.656281e+23
Mtp:      2.604897e+23
PDE 1897 06 12 21 23 15.50  32.5   76.9   10.0   8.1   8.1 Assam
Event name 101335G
time shift:     1.8979
half duration:   2.6297
latitude:       27.0119
longitude:      87.2041
depth:          35.0090
Mrr:      -9.068980e+22
Mtt:     -1.109294e+22
Mpp:     1.017827e+23
Mrt:      -4.968921e+22
Mrp:      1.735591e+23
Mtp:      2.729631e+23
PDE 1897 06 12 21 23 15.50  32.5   76.9   10.0   8.1   8.1 Assam
Event name 101335G
time shift:     2.7457
half duration:   2.6000
latitude:       27.0035
longitude:      87.2032
depth:          34.7000
Mrr:      -8.765557e+22
Mtt:     -1.072180e+22
Mpp:     9.837737e+22
Mrt:      -4.802675e+22
Mrp:      1.738482e+23
Mtp:      2.734178e+23
PDE 1897 06 12 21 23 15.50  32.5   76.9   10.0   8.1   8.1 Assam
Event name 101335G
time shift:     1.8994
half duration:   2.5634
latitude:       26.9952
longitude:      87.2024
depth:          34.3910
Mrr:      -8.400650e+22
Mtt:     -1.027545e+22
Mpp:     9.428195e+22
Mrt:      -4.602741e+22
Mrp:      1.731373e+23
Mtp:      2.722998e+23
PDE 1897 06 12 21 23 15.50  32.5   76.9   10.0   8.1   8.1 Assam
Event name 101335G
time shift:     1.5164
half duration:   2.5584
latitude:       26.9869
longitude:      87.2015
depth:          34.0820
Mrr:      -8.350888e+22
Mtt:     -1.021459e+22
Mpp:     9.372347e+22
Mrt:      -4.575476e+22
Mrp:      1.704574e+23
Mtp:      2.680850e+23
PDE 1897 06 12 21 23 15.50  32.5   76.9   10.0   8.1   8.1 Assam
Event name 101335G
time shift:     1.6018
half duration:   2.5568
latitude:       26.9786
longitude:      87.2007
depth:          33.7729
Mrr:      -8.335954e+22
Mtt:     -1.019632e+22
Mpp:     9.355586e+22
Mrt:      -4.567294e+22
Mrp:      1.690787e+23
Mtp:      2.659166e+23
PDE 1897 06 12 21 23 15.50  32.5   76.9   10.0   8.1   8.1 Assam
Event name 101335G
time shift:     2.4373
half duration:   2.5725
latitude:       26.9703
longitude:      87.1998
depth:          33.4639
Mrr:      -8.490408e+22
Mtt:     -1.038524e+22
Mpp:     9.528933e+22
Mrt:      -4.651920e+22
Mrp:      1.716562e+23
Mtp:      2.699703e+23
PDE 1897 06 12 21 23 15.50  32.5   76.9   10.0   8.1   8.1 Assam
Event name 101335G
time shift:     3.1823
half duration:   2.5881
latitude:       26.9619
longitude:      87.1990
depth:          33.1549
Mrr:      -8.645040e+22
Mtt:     -1.057439e+22
Mpp:     9.702478e+22
Mrt:      -4.736643e+22
Mrp:      1.730234e+23
Mtp:      2.721206e+23
PDE 1897 06 12 21 23 15.50  32.5   76.9   10.0   8.1   8.1 Assam
Event name 101335G
time shift:     2.8954
half duration:   2.5980
latitude:       26.9536
longitude:      87.1981
depth:          32.8459
Mrr:      -8.744737e+22
Mtt:     -1.069633e+22
Mpp:     9.814370e+22
Mrt:      -4.791267e+22
Mrp:      1.742907e+23
Mtp:      2.741137e+23
PDE 1897 06 12 21 23 15.50  32.5   76.9   10.0   8.1   8.1 Assam
Event name 101335G
time shift:     3.0763
half duration:   2.6099
latitude:       26.9453
longitude:      87.1973
depth:          32.5369
Mrr:      -8.866128e+22
Mtt:     -1.084481e+22
Mpp:     9.950609e+22
Mrt:      -4.857778e+22
Mrp:      1.746412e+23
Mtp:      2.746650e+23
PDE 1897 06 12 21 23 15.50  32.5   76.9   10.0   8.1   8.1 Assam
Event name 101335G
time shift:     3.2892
half duration:   2.6409
latitude:       26.9370
longitude:      87.1964
depth:          32.2279
Mrr:      -9.185842e+22
Mtt:     -1.123588e+22
Mpp:     1.030943e+23
Mrt:      -5.032950e+22
Mrp:      1.732258e+23
Mtp:      2.724390e+23
PDE 1897 06 12 21 23 15.50  32.5   76.9   10.0   8.1   8.1 Assam
Event name 101335G
time shift:     3.5026
half duration:   2.6803
latitude:       26.9286
longitude:      87.1956
depth:          31.9188
Mrr:      -9.603262e+22
Mtt:     -1.174646e+22
Mpp:     1.077791e+23
Mrt:      -5.261656e+22
Mrp:      1.750805e+23
Mtp:      2.753559e+23
PDE 1897 06 12 21 23 15.50  32.5   76.9   10.0   8.1   8.1 Assam
Event name 101335G
time shift:     3.1924
half duration:   2.7356
latitude:       26.9203
longitude:      87.1947
depth:          31.6098
Mrr:      -1.020915e+23
Mtt:     -1.248757e+22
Mpp:     1.145791e+23
Mrt:      -5.593624e+22
Mrp:      1.743182e+23
Mtp:      2.741570e+23
PDE 1897 06 12 21 23 15.50  32.5   76.9   10.0   8.1   8.1 Assam
Event name 101335G
time shift:     3.6105
half duration:   2.7895
latitude:       26.9120
longitude:      87.1939
depth:          31.3008
Mrr:      -1.082471e+23
Mtt:     -1.324050e+22
Mpp:     1.214876e+23
Mrt:      -5.930889e+22
Mrp:      1.650502e+23
Mtp:      2.595808e+23
PDE 1897 06 12 21 23 15.50  32.5   76.9   10.0   8.1   8.1 Assam
Event name 101335G
time shift:     4.2939
half duration:   2.8162
latitude:       26.9037
longitude:      87.1930
depth:          30.9918
Mrr:      -1.113901e+23
Mtt:     -1.362494e+22
Mpp:     1.250150e+23
Mrt:      -6.103097e+22
Mrp:      1.576635e+23
Mtp:      2.479635e+23
PDE 1897 06 12 21 23 15.50  32.5   76.9   10.0   8.1   8.1 Assam
Event name 101335G
time shift:     5.4187
half duration:   2.8193
latitude:       26.8954
longitude:      87.1922
depth:          30.6828
Mrr:      -1.117585e+23
Mtt:     -1.367000e+22
Mpp:     1.254285e+23
Mrt:      -6.123279e+22
Mrp:      1.552722e+23
Mtp:      2.442026e+23
PDE 1897 06 12 21 23 15.50  32.5   76.9   10.0   8.1   8.1 Assam
Event name 101335G
time shift:     5.1407
half duration:   2.8246
latitude:       26.8870
longitude:      87.1913
depth:          30.3738
Mrr:      -1.123826e+23
Mtt:     -1.374634e+22
Mpp:     1.261289e+23
Mrt:      -6.157474e+22
Mrp:      1.522695e+23
Mtp:      2.394802e+23
PDE 1897 06 12 21 23 15.50  32.5   76.9   10.0   8.1   8.1 Assam
Event name 101335G
time shift:     5.4324
half duration:   2.8218
latitude:       26.8787
longitude:      87.1905
depth:          30.0647
Mrr:      -1.120575e+23
Mtt:     -1.370658e+22
Mpp:     1.257641e+23
Mrt:      -6.139663e+22
Mrp:      1.411241e+23
Mtp:      2.219513e+23
PDE 1897 06 12 21 23 15.50  32.5   76.9   10.0   8.1   8.1 Assam
Event name 101335G
time shift:     5.5174
half duration:   2.8068
latitude:       26.8704
longitude:      87.1896
depth:          29.7557
Mrr:      -1.102713e+23
Mtt:     -1.348809e+22
Mpp:     1.237594e+23
Mrt:      -6.041796e+22
Mrp:      1.307182e+23
Mtp:      2.055856e+23
PDE 1897 06 12 21 23 15.50  32.5   76.9   10.0   8.1   8.1 Assam
Event name 101335G
time shift:     4.6203
half duration:   2.7665
latitude:       26.8621
longitude:      87.1888
depth:          29.4467
Mrr:      -1.055931e+23
Mtt:     -1.291587e+22
Mpp:     1.185090e+23
Mrt:      -5.785476e+22
Mrp:      1.201874e+23
Mtp:      1.890234e+23
PDE 1897 06 12 21 23 15.50  32.5   76.9   10.0   8.1   8.1 Assam
Event name 101335G
time shift:     6.2475
half duration:   2.7175
latitude:       26.8537
longitude:      87.1879
depth:          29.1377
Mrr:      -1.000822e+23
Mtt:     -1.224179e+22
Mpp:     1.123240e+23
Mrt:      -5.483533e+22
Mrp:      1.128075e+23
Mtp:      1.774168e+23
PDE 1897 06 12 21 23 15.50  32.5   76.9   10.0   8.1   8.1 Assam
Event name 101335G
time shift:     4.4206
half duration:   2.6814
latitude:       26.8454
longitude:      87.1871
depth:          28.8287
Mrr:      -9.614580e+22
Mtt:     -1.176030e+22
Mpp:     1.079061e+23
Mrt:      -5.267857e+22
Mrp:      1.082851e+23
Mtp:      1.703041e+23
PDE 1897 06 12 21 23 15.50  32.5   76.9   10.0   8.1   8.1 Assam
Event name 101335G
time shift:     5.9459
half duration:   2.6550
latitude:       26.8371
longitude:      87.1862
depth:          28.5197
Mrr:      -9.333799e+22
Mtt:     -1.141686e+22
Mpp:     1.047549e+23
Mrt:      -5.114016e+22
Mrp:      1.003839e+23
Mtp:      1.578777e+23
PDE 1897 06 12 21 23 15.50  32.5   76.9   10.0   8.1   8.1 Assam
Event name 101335G
time shift:     6.7068
half duration:   2.6032
latitude:       26.8288
longitude:      87.1854
depth:          28.2106
Mrr:      -8.798118e+22
Mtt:     -1.076163e+22
Mpp:     9.874281e+22
Mrt:      -4.820515e+22
Mrp:      9.455855e+22
Mtp:      1.487159e+23
PDE 1897 06 12 21 23 15.50  32.5   76.9   10.0   8.1   8.1 Assam
Event name 101335G
time shift:     6.6385
half duration:   2.5849
latitude:       27.1791
longitude:      87.2107
depth:          41.1894
Mrr:      -8.613897e+22
Mtt:     -1.053629e+22
Mpp:     9.667526e+22
Mrt:      -4.719579e+22
Mrp:      8.909192e+22
Mtp:      1.401183e+23
PDE 1897 06 12 21 23 15.50  32.5   76.9   10.0   8.1   8.1 Assam
Event name 101335G
time shift:     6.4952
half duration:   2.6063
latitude:       27.1708
longitude:      87.2098
depth:          40.8803
Mrr:      -8.829289e+22