PDE 1934 01 15 21 23 15.50  27   87.14   34.4   8.1   8.2 BiharNepal
Event name 101335G
time shift:     6.8574
half duration:   1.3745
latitude:       27.1775
longitude:      87.2315
depth:          41.1894
Mrr:      -1.295118e+22
Mtt:     -1.584155e+21
Mpp:     1.453534e+22
Mrt:      -7.095992e+21
Mrp:      2.147029e+22
Mtp:      3.376717e+22
PDE 1934 01 15 21 23 15.50  27   87.14   34.4   8.1   8.2 BiharNepal
Event name 101335G
time shift:     6.3914
half duration:   2.0694
latitude:       27.1692
longitude:      87.2306
depth:          40.8803
Mrr:      -4.419830e+22
Mtt:     -5.406220e+21
Mpp:     4.960452e+22
Mrt:      -2.421638e+22
Mrp:      7.070078e+22
Mtp:      1.111939e+23
PDE 1934 01 15 21 23 15.50  27   87.14   34.4   8.1   8.2 BiharNepal
Event name 101335G
time shift:     5.3887
half duration:   2.5355
latitude:       27.1609
longitude:      87.2298
depth:          40.5713
Mrr:      -8.129116e+22
Mtt:     -9.943321e+21
Mpp:     9.123448e+22
Mrt:      -4.453967e+22
Mrp:      1.185062e+23
Mtp:      1.863792e+23
PDE 1934 01 15 21 23 15.50  27   87.14   34.4   8.1   8.2 BiharNepal
Event name 101335G
time shift:     6.0957
half duration:   2.7238
latitude:       27.1526
longitude:      87.2289
depth:          40.2623
Mrr:      -1.007808e+23
Mtt:     -1.232724e+22
Mpp:     1.131080e+23
Mrt:      -5.521808e+22
Mrp:      1.394117e+23
Mtp:      2.192582e+23
PDE 1934 01 15 21 23 15.50  27   87.14   34.4   8.1   8.2 BiharNepal
Event name 101335G
time shift:     6.0013
half duration:   2.7291
latitude:       27.1442
longitude:      87.2281
depth:          39.9533
Mrr:      -1.013732e+23
Mtt:     -1.239971e+22
Mpp:     1.137730e+23
Mrt:      -5.554270e+22
Mrp:      1.404871e+23
Mtp:      2.209495e+23
PDE 1934 01 15 21 23 15.50  27   87.14   34.4   8.1   8.2 BiharNepal
Event name 101335G
time shift:     5.9176
half duration:   2.7529
latitude:       27.1359
longitude:      87.2272
depth:          39.6443
Mrr:      -1.040468e+23
Mtt:     -1.272673e+22
Mpp:     1.167735e+23
Mrt:      -5.700754e+22
Mrp:      1.456661e+23
Mtp:      2.290948e+23
PDE 1934 01 15 21 23 15.50  27   87.14   34.4   8.1   8.2 BiharNepal
Event name 101335G
time shift:     5.4129
half duration:   2.7554
latitude:       27.1276
longitude:      87.2264
depth:          39.3353
Mrr:      -1.043284e+23
Mtt:     -1.276118e+22
Mpp:     1.170896e+23
Mrt:      -5.716186e+22
Mrp:      1.451253e+23
Mtp:      2.282441e+23
PDE 1934 01 15 21 23 15.50  27   87.14   34.4   8.1   8.2 BiharNepal
Event name 101335G
time shift:     5.2581
half duration:   2.7664
latitude:       27.1193
longitude:      87.2255
depth:          39.0262
Mrr:      -1.055829e+23
Mtt:     -1.291463e+22
Mpp:     1.184975e+23
Mrt:      -5.784919e+22
Mrp:      1.429536e+23
Mtp:      2.248287e+23
PDE 1934 01 15 21 23 15.50  27   87.14   34.4   8.1   8.2 BiharNepal
Event name 101335G
time shift:     3.9534
half duration:   2.7741
latitude:       27.1109
longitude:      87.2247
depth:          38.7172
Mrr:      -1.064633e+23
Mtt:     -1.302231e+22
Mpp:     1.194856e+23
Mrt:      -5.833154e+22
Mrp:      1.477370e+23
Mtp:      2.323517e+23
PDE 1934 01 15 21 23 15.50  27   87.14   34.4   8.1   8.2 BiharNepal
Event name 101335G
time shift:     4.0578
half duration:   2.7414
latitude:       27.1026
longitude:      87.2238
depth:          38.4082
Mrr:      -1.027485e+23
Mtt:     -1.256792e+22
Mpp:     1.153164e+23
Mrt:      -5.629619e+22
Mrp:      1.617805e+23
Mtp:      2.544385e+23
PDE 1934 01 15 21 23 15.50  27   87.14   34.4   8.1   8.2 BiharNepal
Event name 101335G
time shift:     4.1388
half duration:   2.7337
latitude:       27.0943
longitude:      87.2230
depth:          38.0992
Mrr:      -1.018868e+23
Mtt:     -1.246253e+22
Mpp:     1.143494e+23
Mrt:      -5.582410e+22
Mrp:      1.698260e+23
Mtp:      2.670920e+23
PDE 1934 01 15 21 23 15.50  27   87.14   34.4   8.1   8.2 BiharNepal
Event name 101335G
time shift:     4.1025
half duration:   2.7483
latitude:       27.0860
longitude:      87.2221
depth:          37.7902
Mrr:      -1.035260e+23
Mtt:     -1.266303e+22
Mpp:     1.161891e+23
Mrt:      -5.672222e+22
Mrp:      1.756464e+23
Mtp:      2.762459e+23
PDE 1934 01 15 21 23 15.50  27   87.14   34.4   8.1   8.2 BiharNepal
Event name 101335G
time shift:     3.3451
half duration:   2.7725
latitude:       27.0777
longitude:      87.2213
depth:          37.4812
Mrr:      -1.062824e+23
Mtt:     -1.300018e+22
Mpp:     1.192826e+23
Mrt:      -5.823243e+22
Mrp:      1.760152e+23
Mtp:      2.768260e+23
PDE 1934 01 15 21 23 15.50  27   87.14   34.4   8.1   8.2 BiharNepal
Event name 101335G
time shift:     2.8005
half duration:   2.7696
latitude:       27.0693
longitude:      87.2204
depth:          37.1721
Mrr:      -1.059490e+23
Mtt:     -1.295941e+22
Mpp:     1.189084e+23
Mrt:      -5.804979e+22
Mrp:      1.712915e+23
Mtp:      2.693967e+23
PDE 1934 01 15 21 23 15.50  27   87.14   34.4   8.1   8.2 BiharNepal
Event name 101335G
time shift:     2.8248
half duration:   2.7607
latitude:       27.0610
longitude:      87.2196
depth:          36.8631
Mrr:      -1.049268e+23
Mtt:     -1.283437e+22
Mpp:     1.177611e+23
Mrt:      -5.748968e+22
Mrp:      1.699555e+23
Mtp:      2.672957e+23
PDE 1934 01 15 21 23 15.50  27   87.14   34.4   8.1   8.2 BiharNepal
Event name 101335G
time shift:     2.2332
half duration:   2.7443
latitude:       27.0527
longitude:      87.2187
depth:          36.5541
Mrr:      -1.030743e+23
Mtt:     -1.260778e+22
Mpp:     1.156821e+23
Mrt:      -5.647470e+22
Mrp:      1.802900e+23
Mtp:      2.835491e+23
PDE 1934 01 15 21 23 15.50  27   87.14   34.4   8.1   8.2 BiharNepal
Event name 101335G
time shift:     2.5614
half duration:   2.7510
latitude:       27.0444
longitude:      87.2179
depth:          36.2451
Mrr:      -1.038334e+23
Mtt:     -1.270063e+22
Mpp:     1.165340e+23
Mrt:      -5.689063e+22
Mrp:      1.847703e+23
Mtp:      2.905954e+23
PDE 1934 01 15 21 23 15.50  27   87.14   34.4   8.1   8.2 BiharNepal
Event name 101335G
time shift:     2.3892
half duration:   2.7681
latitude:       27.0360
longitude:      87.2170
depth:          35.9361
Mrr:      -1.057738e+23
Mtt:     -1.293797e+22
Mpp:     1.187117e+23
Mrt:      -5.795376e+22
Mrp:      1.952311e+23
Mtp:      3.070475e+23
PDE 1934 01 15 21 23 15.50  27   87.14   34.4   8.1   8.2 BiharNepal
Event name 101335G
time shift:     2.4982
half duration:   2.7848
latitude:       27.0277
longitude:      87.2162
depth:          35.6271
Mrr:      -1.076992e+23
Mtt:     -1.317349e+22
Mpp:     1.208727e+23
Mrt:      -5.900872e+22
Mrp:      2.002690e+23
Mtp:      3.149708e+23
PDE 1934 01 15 21 23 15.50  27   87.14   34.4   8.1   8.2 BiharNepal
Event name 101335G
time shift:     2.5641
half duration:   2.7926
latitude:       27.0194
longitude:      87.2153
depth:          35.3180
Mrr:      -1.086079e+23
Mtt:     -1.328463e+22
Mpp:     1.218925e+23
Mrt:      -5.950656e+22
Mrp:      2.118613e+23
Mtp:      3.332025e+23
PDE 1934 01 15 21 23 15.50  27   87.14   34.4   8.1   8.2 BiharNepal
Event name 101335G
time shift:     1.8635
half duration:   2.8065
latitude:       27.0111
longitude:      87.2145
depth:          35.0090
Mrr:      -1.102393e+23
Mtt:     -1.348419e+22
Mpp:     1.237235e+23
Mrt:      -6.040046e+22
Mrp:      2.193448e+23
Mtp:      3.449722e+23
PDE 1934 01 15 21 23 15.50  27   87.14   34.4   8.1   8.2 BiharNepal
Event name 101335G
time shift:     2.1724
half duration:   2.8167
latitude:       27.0028
longitude:      87.2136
depth:          34.7000
Mrr:      -1.114451e+23
Mtt:     -1.363167e+22
Mpp:     1.250767e+23
Mrt:      -6.106108e+22
Mrp:      2.277426e+23
Mtp:      3.581796e+23
PDE 1934 01 15 21 23 15.50  27   87.14   34.4   8.1   8.2 BiharNepal
Event name 101335G
time shift:     2.0848
half duration:   2.7984
latitude:       26.9944
longitude:      87.2128
depth:          34.3910
Mrr:      -1.092883e+23
Mtt:     -1.336785e+22
Mpp:     1.226561e+23
Mrt:      -5.987936e+22
Mrp:      2.395766e+23
Mtp:      3.767915e+23
PDE 1934 01 15 21 23 15.50  27   87.14   34.4   8.1   8.2 BiharNepal
Event name 101335G
time shift:     1.8800
half duration:   2.7790
latitude:       26.9861
longitude:      87.2119
depth:          34.0820
Mrr:      -1.070355e+23
Mtt:     -1.309230e+22
Mpp:     1.201278e+23
Mrt:      -5.864507e+22
Mrp:      2.349600e+23
Mtp:      3.695307e+23
PDE 1934 01 15 21 23 15.50  27   87.14   34.4   8.1   8.2 BiharNepal
Event name 101335G
time shift:     2.1167
half duration:   2.7851
latitude:       26.9778
longitude:      87.2111
depth:          33.7729
Mrr:      -1.077335e+23
Mtt:     -1.317767e+22
Mpp:     1.209111e+23
Mrt:      -5.902749e+22
Mrp:      2.299078e+23
Mtp:      3.615849e+23
PDE 1934 01 15 21 23 15.50  27   87.14   34.4   8.1   8.2 BiharNepal
Event name 101335G
time shift:     3.1088
half duration:   2.7925
latitude:       26.9695
longitude:      87.2102
depth:          33.4639
Mrr:      -1.085961e+23
Mtt:     -1.328318e+22
Mpp:     1.218792e+23
Mrt:      -5.950010e+22
Mrp:      2.236046e+23
Mtp:      3.516717e+23
PDE 1934 01 15 21 23 15.50  27   87.14   34.4   8.1   8.2 BiharNepal
Event name 101335G
time shift:     2.5365
half duration:   2.8003
latitude:       26.9611
longitude:      87.2094
depth:          33.1549
Mrr:      -1.095102e+23
Mtt:     -1.339500e+22
Mpp:     1.229052e+23
Mrt:      -6.000098e+22
Mrp:      2.187957e+23
Mtp:      3.441086e+23
PDE 1934 01 15 21 23 15.50  27   87.14   34.4   8.1   8.2 BiharNepal
Event name 101335G
time shift:     3.1272
half duration:   2.7844
latitude:       26.9528
longitude:      87.2085
depth:          32.8459
Mrr:      -1.076517e+23
Mtt:     -1.316767e+22
Mpp:     1.208194e+23
Mrt:      -5.898269e+22
Mrp:      2.263610e+23
Mtp:      3.560067e+23
PDE 1934 01 15 21 23 15.50  27   87.14   34.4   8.1   8.2 BiharNepal
Event name 101335G
time shift:     3.3440
half duration:   2.7755
latitude:       26.9445
longitude:      87.2077
depth:          32.5369
Mrr:      -1.066296e+23
Mtt:     -1.304265e+22
Mpp:     1.196722e+23
Mrt:      -5.842266e+22
Mrp:      2.235433e+23
Mtp:      3.515753e+23
PDE 1934 01 15 21 23 15.50  27   87.14   34.4   8.1   8.2 BiharNepal
Event name 101335G
time shift:     3.2335
half duration:   2.7939
latitude:       26.9362
longitude:      87.2068
depth:          32.2279
Mrr:      -1.087599e+23
Mtt:     -1.330323e+22
Mpp:     1.220632e+23
Mrt:      -5.958990e+22
Mrp:      2.153411e+23
Mtp:      3.386753e+23
PDE 1934 01 15 21 23 15.50  27   87.14   34.4   8.1   8.2 BiharNepal
Event name 101335G
time shift:     3.9494
half duration:   2.7986
latitude:       26.9279
longitude:      87.2060
depth:          31.9188
Mrr:      -1.093128e+23
Mtt:     -1.337085e+22
Mpp:     1.226836e+23
Mrt:      -5.989279e+22
Mrp:      2.159428e+23
Mtp:      3.396216e+23
PDE 1934 01 15 21 23 15.50  27   87.14   34.4   8.1   8.2 BiharNepal
Event name 101335G
time shift:     4.2318
half duration:   2.8050
latitude:       26.9195
longitude:      87.2051
depth:          31.6098
Mrr:      -1.100687e+23
Mtt:     -1.346331e+22
Mpp:     1.235320e+23
Mrt:      -6.030697e+22
Mrp:      2.159233e+23
Mtp:      3.395910e+23
PDE 1934 01 15 21 23 15.50  27   87.14   34.4   8.1   8.2 BiharNepal
Event name 101335G
time shift:     3.5611
half duration:   2.8217
latitude:       26.9112
longitude:      87.2043
depth:          31.3008
Mrr:      -1.120401e+23
Mtt:     -1.370445e+22
Mpp:     1.257446e+23
Mrt:      -6.138711e+22
Mrp:      2.147540e+23
Mtp:      3.377520e+23
PDE 1934 01 15 21 23 15.50  27   87.14   34.4   8.1   8.2 BiharNepal
Event name 101335G
time shift:     4.0346
half duration:   2.8243
latitude:       26.9029
longitude:      87.2034
depth:          30.9918
Mrr:      -1.123551e+23
Mtt:     -1.374298e+22
Mpp:     1.260981e+23
Mrt:      -6.155970e+22
Mrp:      2.158855e+23
Mtp:      3.395315e+23
PDE 1934 01 15 21 23 15.50  27   87.14   34.4   8.1   8.2 BiharNepal
Event name 101335G
time shift:     5.0876
half duration:   2.8556
latitude:       26.8946
longitude:      87.2026
depth:          30.6828
Mrr:      -1.161281e+23
Mtt:     -1.420448e+22
Mpp:     1.303326e+23
Mrt:      -6.362692e+22
Mrp:      2.161156e+23
Mtp:      3.398934e+23
PDE 1934 01 15 21 23 15.50  27   87.14   34.4   8.1   8.2 BiharNepal
Event name 101335G
time shift:     4.1990
half duration:   2.8722
latitude:       26.8862
longitude:      87.2017
depth:          30.3738
Mrr:      -1.181662e+23
Mtt:     -1.445377e+22
Mpp:     1.326199e+23
Mrt:      -6.474359e+22
Mrp:      2.130044e+23
Mtp:      3.350003e+23
PDE 1934 01 15 21 23 15.50  27   87.14   34.4   8.1   8.2 BiharNepal
Event name 101335G
time shift:     5.0564
half duration:   2.8823
latitude:       26.8779
longitude:      87.2009
depth:          30.0647
Mrr:      -1.194122e+23
Mtt:     -1.460619e+22
Mpp:     1.340184e+23
Mrt:      -6.542631e+22
Mrp:      2.119620e+23
Mtp:      3.333609e+23
PDE 1934 01 15 21 23 15.50  27   87.14   34.4   8.1   8.2 BiharNepal
Event name 101335G
time shift:     4.9626
half duration:   2.8928
latitude:       26.8696
longitude:      87.2000
depth:          29.7557
Mrr:      -1.207243e+23
Mtt:     -1.476668e+22
Mpp:     1.354910e+23
Mrt:      -6.614520e+22
Mrp:      2.144881e+23
Mtp:      3.373337e+23
PDE 1934 01 15 21 23 15.50  27   87.14   34.4   8.1   8.2 BiharNepal
Event name 101335G
time shift:     4.6002
half duration:   2.9037
latitude:       26.8613
longitude:      87.1992
depth:          29.4467
Mrr:      -1.220977e+23
Mtt:     -1.493466e+22
Mpp:     1.370323e+23
Mrt:      -6.689767e+22
Mrp:      2.170115e+23
Mtp:      3.413024e+23
PDE 1934 01 15 21 23 15.50  27   87.14   34.4   8.1   8.2 BiharNepal
Event name 101335G
time shift:     6.1593
half duration:   2.9290
latitude:       26.8530
longitude:      87.1983
depth:          29.1377
Mrr:      -1.253189e+23
Mtt:     -1.532868e+22
Mpp:     1.406476e+23
Mrt:      -6.866262e+22
Mrp:      2.116022e+23
Mtp:      3.327949e+23
PDE 1934 01 15 21 23 15.50  27   87.14   34.4   8.1   8.2 BiharNepal
Event name 101335G
time shift:     6.2992
half duration:   2.9310
latitude:       26.8446
longitude:      87.1975
depth:          28.8287
Mrr:      -1.255786e+23
Mtt:     -1.536045e+22
Mpp:     1.409391e+23
Mrt:      -6.880490e+22
Mrp:      2.123184e+23
Mtp:      3.339214e+23
PDE 1934 01 15 21 23 15.50  27   87.14   34.4   8.1   8.2 BiharNepal
Event name 101335G
time shift:     6.5796
half duration:   2.9236
latitude:       26.8363
longitude:      87.1966
depth:          28.5197
Mrr:      -1.246180e+23
Mtt:     -1.524295e+22
Mpp:     1.398610e+23
Mrt:      -6.827859e+22
Mrp:      2.184326e+23
Mtp:      3.435375e+23
PDE 1934 01 15 21 23 15.50  27   87.14   34.4   8.1   8.2 BiharNepal
Event name 101335G
time shift:     6.3997
half duration:   2.9190
latitude:       26.8280
longitude:      87.1958
depth:          28.2106
Mrr:      -1.240315e+23
Mtt:     -1.517121e+22
Mpp:     1.392027e+23
Mrt:      -6.795723e+22
Mrp:      2.257677e+23
Mtp:      3.550736e+23
PDE 1934 01 15 21 23 15.50  27   87.14   34.4   8.1   8.2 BiharNepal
Event name 101335G
time shift:     6.6513
half duration:   2.9483
latitude:       27.1783
longitude:      87.2211
depth:          41.1894
Mrr:      -1.278093e+23
Mtt:     -1.563330e+22
Mpp:     1.434426e+23
Mrt:      -7.002709e+22
Mrp:      2.339436e+23
Mtp:      3.679322e+23
PDE 1934 01 15 21 23 15.50  27   87.14   34.4   8.1   8.2 BiharNepal
Event name 101335G
time shift:     6.1508
half duration:   2.9758
latitude:       27.1700
longitude:      87.2202
depth:          40.8803
Mrr:      -1.314221e+23
Mtt:     -1.607521e+22
Mpp:     1.474973e+23
Mrt:      -7.200655e+22
Mrp:      2.446067e+23
Mtp:      3.847025e+23
PDE 1934 01 15 21 23 15.50  27   87.14   34.4   8.1   8.2 BiharNepal
Event name 101335G
time shift:     5.8369
half duration:   2.9714
latitude:       27.1617
longitude:      87.2194
depth:          40.5713
Mrr:      -1.308401e+23
Mtt:     -1.600402e+22
Mpp:     1.468441e+23
Mrt:      -7.168769e+22
Mrp:      2.472544e+23
Mtp:      3.888665e+23
PDE 1934 01 15 21 23 15.50  27   87.14   34.4   8.1   8.2 BiharNepal
Event name 101335G
time shift:     5.0194
half duration:   2.9656
latitude:       27.1533
longitude:      87.2185
depth:          40.2623
Mrr:      -1.300786e+23
Mtt:     -1.591087e+22
Mpp:     1.459895e+23
Mrt:      -7.127046e+22
Mrp:      2.423795e+23
Mtp:      3.811996e+23
PDE 1934 01 15 21 23 15.50  27   87.14   34.4   8.1   8.2 BiharNepal
Event name 101335G
time shift:     5.0534
half duration:   2.9781
latitude:       27.1450
longitude:      87.2177
depth:          39.9533
Mrr:      -1.317280e+23
Mtt:     -1.611262e+22
Mpp:     1.478406e+23
Mrt:      -7.217414e+22
Mrp:      2.402940e+23
Mtp:      3.779197e+23
PDE 1934 01 15 21 23 15.50  27   87.14   34.4   8.1   8.2 BiharNepal
Event name 101335G
time shift:     5.0232
half duration:   2.9724
latitude:       27.1367
longitude:      87.2168
depth:          39.6443
Mrr:      -1.309730e+23
Mtt:     -1.602028e+22
Mpp:     1.469933e+23
Mrt:      -7.176052e+22
Mrp:      2.375937e+23
Mtp:      3.736728e+23
PDE 1934 01 15 21 23 15.50  27   87.14   34.4   8.1   8.2 BiharNepal
Event name 101335G
time shift:     4.4751
half duration:   2.9500
latitude:       27.1284
longitude:      87.2160
depth:          39.3353
Mrr:      -1.280241e+23
Mtt:     -1.565957e+22
Mpp:     1.436836e+23
Mrt:      -7.014476e+22
Mrp:      2.284103e+23
Mtp:      3.592298e+23
PDE 1934 01 15 21 23 15.50  27   87.14   34.4   8.1   8.2 BiharNepal
Event name 101335G
time shift:     4.3002
half duration:   2.9078
latitude:       27.1200
longitude:      87.2151
depth:          39.0262
Mrr:      -1.226081e+23
Mtt:     -1.499710e+22
Mpp:     1.376052e+23
Mrt:      -6.717732e+22
Mrp:      2.209488e+23
Mtp:      3.474947e+23
PDE 1934 01 15 21 23 15.50  27   87.14   34.4   8.1   8.2 BiharNepal
Event name 101335G
time shift:     3.4618
half duration:   2.8687
latitude:       27.1117
longitude:      87.2143
depth:          38.7172
Mrr:      -1.177360e+23
Mtt:     -1.440116e+22
Mpp:     1.321372e+23
Mrt:      -6.450790e+22
Mrp:      2.138973e+23
Mtp:      3.364045e+23
PDE 1934 01 15 21 23 15.50  27   87.14   34.4   8.1   8.2 BiharNepal
Event name 101335G
time shift:     3.5644
half duration:   2.8456
latitude:       27.1034
longitude:      87.2134
depth:          38.4082
Mrr:      -1.149125e+23
Mtt:     -1.405580e+22
Mpp:     1.289683e+23
Mrt:      -6.296091e+22
Mrp:      2.000448e+23
Mtp:      3.146182e+23
PDE 1934 01 15 21 23 15.50  27   87.14   34.4   8.1   8.2 BiharNepal
Event name 101335G
time shift:     3.7540
half duration:   2.8394
latitude:       27.0951
longitude:      87.2126
depth:          38.0992
Mrr:      -1.141608e+23
Mtt:     -1.396386e+22
Mpp:     1.281247e+23
Mrt:      -6.254907e+22
Mrp:      1.930962e+23
Mtp:      3.036900e+23
PDE 1934 01 15 21 23 15.50  27   87.14   34.4   8.1   8.2 BiharNepal
Event name 101335G
time shift:     3.6898
half duration:   2.8320
latitude:       27.0868
longitude:      87.2117
depth:          37.7902
Mrr:      -1.132728e+23
Mtt:     -1.385524e+22
Mpp:     1.271281e+23
Mrt:      -6.206252e+22
Mrp:      1.889748e+23
Mtp:      2.972080e+23
PDE 1934 01 15 21 23 15.50  27   87.14   34.4   8.1   8.2 BiharNepal
Event name 101335G
time shift:     3.2623
half duration:   2.8312
latitude:       27.0784
longitude:      87.2109
depth:          37.4812
Mrr:      -1.131764e+23
Mtt:     -1.384345e+22
Mpp:     1.270199e+23
Mrt:      -6.200971e+22
Mrp:      1.835507e+23
Mtp:      2.886773e+23
PDE 1934 01 15 21 23 15.50  27   87.14   34.4   8.1   8.2 BiharNepal
Event name 101335G
time shift:     3.0030
half duration:   2.8462
latitude:       27.0701
longitude:      87.2100
depth:          37.1721
Mrr:      -1.149880e+23
Mtt:     -1.406503e+22
Mpp:     1.290531e+23
Mrt:      -6.300228e+22
Mrp:      1.759669e+23
Mtp:      2.767500e+23
PDE 1934 01 15 21 23 15.50  27   87.14   34.4   8.1   8.2 BiharNepal
Event name 101335G
time shift:     2.4114
half duration:   2.8453
latitude:       27.0618
longitude:      87.2092
depth:          36.8631
Mrr:      -1.148711e+23
Mtt:     -1.405073e+22
Mpp:     1.289218e+23
Mrt:      -6.293820e+22
Mrp:      1.701494e+23
Mtp:      2.676006e+23
PDE 1934 01 15 21 23 15.50  27   87.14   34.4   8.1   8.2 BiharNepal
Event name 101335G
time shift:     2.3422
half duration:   2.8193
latitude:       27.0535
longitude:      87.2083
depth:          36.5541
Mrr:      -1.117572e+23
Mtt:     -1.366985e+22
Mpp:     1.254271e+23
Mrt:      -6.123211e+22
Mrp:      1.724252e+23
Mtp:      2.711798e+23
PDE 1934 01 15 21 23 15.50  27   87.14   34.4   8.1   8.2 BiharNepal
Event name 101335G
time shift:     2.1847
half duration:   2.8081
latitude:       27.0451
longitude:      87.2075
depth:          36.2451
Mrr:      -1.104275e+23
Mtt:     -1.350720e+22
Mpp:     1.239347e+23
Mrt:      -6.050353e+22
Mrp:      1.680058e+23
Mtp:      2.642292e+23
PDE 1934 01 15 21 23 15.50  27   87.14   34.4   8.1   8.2 BiharNepal
Event name 101335G
time shift:     1.5595
half duration:   2.8008
latitude:       27.0368
longitude:      87.2066
depth:          35.9361
Mrr:      -1.095729e+23
Mtt:     -1.340268e+22
Mpp:     1.229756e+23
Mrt:      -6.003534e+22
Mrp:      1.595407e+23
Mtp:      2.509159e+23
PDE 1934 01 15 21 23 15.50  27   87.14   34.4   8.1   8.2 BiharNepal
Event name 101335G
time shift:     1.8845
half duration:   2.8087
latitude:       27.0285
longitude:      87.2058
depth:          35.6271
Mrr:      -1.105029e+23
Mtt:     -1.351642e+22
Mpp:     1.240193e+23
Mrt:      -6.054484e+22
Mrp:      1.619646e+23
Mtp:      2.547281e+23
PDE 1934 01 15 21 23 15.50  27   87.14   34.4   8.1   8.2 BiharNepal
Event name 101335G
time shift:     1.6432
half duration:   2.8206
latitude:       27.0202
longitude:      87.2049
depth:          35.3180
Mrr:      -1.119077e+23
Mtt:     -1.368825e+22
Mpp:     1.255959e+23
Mrt:      -6.131454e+22
Mrp:      1.656281e+23
Mtp:      2.604897e+23
PDE 1934 01 15 21 23 15.50  27   87.14   34.4   8.1   8.2 BiharNepal
Event name 101335G
time shift:     1.3340
half duration:   2.8422
latitude:       27.0119
longitude:      87.2041
depth:          35.0090
Mrr:      -1.145023e+23
Mtt:     -1.400562e+22
Mpp:     1.285079e+23
Mrt:      -6.273614e+22
Mrp:      1.735591e+23
Mtp:      2.729631e+23
PDE 1934 01 15 21 23 15.50  27   87.14   34.4   8.1   8.2 BiharNepal
Event name 101335G
time shift:     1.9372
half duration:   2.8900
latitude:       27.0035
longitude:      87.2032
depth:          34.7000
Mrr:      -1.203820e+23
Mtt:     -1.472481e+22
Mpp:     1.351069e+23
Mrt:      -6.595768e+22
Mrp:      1.738482e+23
Mtp:      2.734178e+23
PDE 1934 01 15 21 23 15.50  27   87.14   34.4   8.1   8.2 BiharNepal
Event name 101335G
time shift:     1.9943
half duration:   2.9181
latitude:       26.9952
longitude:      87.2024
depth:          34.3910
Mrr:      -1.239192e+23
Mtt:     -1.515747e+22
Mpp:     1.390766e+23
Mrt:      -6.789568e+22
Mrp:      1.731373e+23
Mtp:      2.722998e+23
PDE 1934 01 15 21 23 15.50  27   87.14   34.4   8.1   8.2 BiharNepal
Event name 101335G
time shift:     1.9830
half duration:   2.9161
latitude:       26.9869
longitude:      87.2015
depth:          34.0820
Mrr:      -1.236705e+23
Mtt:     -1.512705e+22
Mpp:     1.387976e+23
Mrt:      -6.775944e+22
Mrp:      1.704574e+23
Mtp:      2.680850e+23
PDE 1934 01 15 21 23 15.50  27   87.14   34.4   8.1   8.2 BiharNepal
Event name 101335G
time shift:     2.6172
half duration:   2.9263
latitude:       26.9786
longitude:      87.2007
depth:          33.7729
Mrr:      -1.249715e+23
Mtt:     -1.528618e+22
Mpp:     1.402577e+23
Mrt:      -6.847224e+22
Mrp:      1.690787e+23
Mtp:      2.659166e+23
PDE 1934 01 15 21 23 15.50  27   87.14   34.4   8.1   8.2 BiharNepal
Event name 101335G
time shift:     2.6080
half duration:   2.9204
latitude:       26.9703
longitude:      87.1998
depth:          33.4639
Mrr:      -1.242104e+23
Mtt:     -1.519309e+22
Mpp:     1.394035e+23
Mrt:      -6.805526e+22
Mrp:      1.716562e+23
Mtp:      2.699703e+23
PDE 1934 01 15 21 23 15.50  27   87.14   34.4   8.1   8.2 BiharNepal
Event name 101335G
time shift:     2.8456
half duration:   2.9183
latitude:       26.9619
longitude:      87.1990
depth:          33.1549
Mrr:      -1.239419e+23
Mtt:     -1.516025e+22
Mpp:     1.391022e+23
Mrt:      -6.790814e+22
Mrp:      1.730234e+23
Mtp:      2.721206e+23
PDE 1934 01 15 21 23 15.50  27   87.14   34.4   8.1   8.2 BiharNepal
Event name 101335G
time shift:     2.0621
half duration:   2.9055
latitude:       26.9536
longitude:      87.1981
depth:          32.8459
Mrr:      -1.223211e+23
Mtt:     -1.496200e+22
Mpp:     1.372831e+23
Mrt:      -6.702009e+22
Mrp:      1.742907e+23
Mtp:      2.741137e+23
PDE 1934 01 15 21 23 15.50  27   87.14   34.4   8.1   8.2 BiharNepal
Event name 101335G
time shift:     3.0379
half duration:   2.8783
latitude:       26.9453
longitude:      87.1973
depth:          32.5369
Mrr:      -1.189232e+23
Mtt:     -1.454637e+22
Mpp:     1.334696e+23
Mrt:      -6.515837e+22
Mrp:      1.746412e+23
Mtp:      2.746650e+23
PDE 1934 01 15 21 23 15.50  27   87.14   34.4   8.1   8.2 BiharNepal
Event name 101335G
time shift:     2.9718
half duration:   2.8696
latitude:       26.9370
longitude:      87.1964
depth:          32.2279
Mrr:      -1.178399e+23
Mtt:     -1.441386e+22
Mpp:     1.322537e+23
Mrt:      -6.456482e+22
Mrp:      1.732258e+23
Mtp:      2.724390e+23
PDE 1934 01 15 21 23 15.50  27   87.14   34.4   8.1   8.2 BiharNepal
Event name 101335G
time shift:     3.0746
half duration:   2.8505
latitude:       26.9286
longitude:      87.1956
depth:          31.9188
Mrr:      -1.155082e+23
Mtt:     -1.412866e+22
Mpp:     1.296369e+23
Mrt:      -6.328729e+22
Mrp:      1.750805e+23
Mtp:      2.753559e+23
PDE 1934 01 15 21 23 15.50  27   87.14   34.4   8.1   8.2 BiharNepal
Event name 101335G
time shift:     4.2928
half duration:   2.8686
latitude:       26.9203
longitude:      87.1947
depth:          31.6098
Mrr:      -1.177174e+23
Mtt:     -1.439888e+22
Mpp:     1.321162e+23
Mrt:      -6.449769e+22
Mrp:      1.743182e+23
Mtp:      2.741570e+23
PDE 1934 01 15 21 23 15.50  27   87.14   34.4   8.1   8.2 BiharNepal
Event name 101335G
time shift:     4.2963
half duration:   2.8719
latitude:       26.9120
longitude:      87.1939
depth:          31.3008
Mrr:      -1.181224e+23
Mtt:     -1.444842e+22
Mpp:     1.325708e+23
Mrt:      -6.471959e+22
Mrp:      1.650502e+23
Mtp:      2.595808e+23
PDE 1934 01 15 21 23 15.50  27   87.14   34.4   8.1   8.2 BiharNepal
Event name 101335G
time shift:     4.4438
half duration:   2.8724
latitude:       26.9037
longitude:      87.1930
depth:          30.9918
Mrr:      -1.181951e+23
Mtt:     -1.445732e+22
Mpp:     1.326525e+23
Mrt:      -6.475946e+22
Mrp:      1.576635e+23
Mtp:      2.479635e+23
PDE 1934 01 15 21 23 15.50  27   87.14   34.4   8.1   8.2 BiharNepal
Event name 101335G
time shift:     4.4119
half duration:   2.8842
latitude:       26.8954
longitude:      87.1922
depth:          30.6828
Mrr:      -1.196499e+23
Mtt:     -1.463526e+22
Mpp:     1.342852e+23
Mrt:      -6.555653e+22
Mrp:      1.552722e+23
Mtp:      2.442026e+23
PDE 1934 01 15 21 23 15.50  27   87.14   34.4   8.1   8.2 BiharNepal
Event name 101335G
time shift:     4.4591
half duration:   2.8811
latitude:       26.8870
longitude:      87.1913
depth:          30.3738
Mrr:      -1.192660e+23
Mtt:     -1.458831e+22
Mpp:     1.338543e+23
Mrt:      -6.534621e+22
Mrp:      1.522695e+23
Mtp:      2.394802e+23
PDE 1934 01 15 21 23 15.50  27   87.14   34.4   8.1   8.2 BiharNepal
Event name 101335G
time shift:     4.9470
half duration:   2.8720
latitude:       26.8787
longitude:      87.1905
depth:          30.0647
Mrr:      -1.181405e+23
Mtt:     -1.445063e+22
Mpp:     1.325911e+23
Mrt:      -6.472951e+22
Mrp:      1.411241e+23
Mtp:      2.219513e+23
PDE 1934 01 15 21 23 15.50  27   87.14   34.4   8.1   8.2 BiharNepal
Event name 101335G
time shift:     5.6201
half duration:   2.8752
latitude:       26.8704
longitude:      87.1896
depth:          29.7557
Mrr:      -1.185351e+23
Mtt:     -1.449891e+22
Mpp:     1.330341e+23
Mrt:      -6.494576e+22
Mrp:      1.307182e+23
Mtp:      2.055856e+23
PDE 1934 01 15 21 23 15.50  27   87.14   34.4   8.1   8.2 BiharNepal
Event name 101335G
time shift:     5.5800
half duration:   2.8775
latitude:       26.8621
longitude:      87.1888
depth:          29.4467
Mrr:      -1.188243e+23
Mtt:     -1.453427e+22
Mpp:     1.333586e+23
Mrt:      -6.510418e+22
Mrp:      1.201874e+23
Mtp:      1.890234e+23
PDE 1934 01 15 21 23 15.50  27   87.14   34.4   8.1   8.2 BiharNepal
Event name 101335G
time shift:     5.0014
half duration:   2.8921
latitude:       26.8537
longitude:      87.1879
depth:          29.1377
Mrr:      -1.206348e+23
Mtt:     -1.475573e+22
Mpp:     1.353905e+23
Mrt:      -6.609616e+22
Mrp:      1.128075e+23
Mtp:      1.774168e+23
PDE 1934 01 15 21 23 15.50  27   87.14   34.4   8.1   8.2 BiharNepal
Event name 101335G
time shift:     5.9574
half duration:   2.8855
latitude:       26.8454
longitude:      87.1871
depth:          28.8287
Mrr:      -1.198155e+23
Mtt:     -1.465551e+22
Mpp:     1.344710e+23
Mrt:      -6.564724e+22
Mrp:      1.082851e+23
Mtp:      1.703041e+23
PDE 1934 01 15 21 23 15.50  27   87.14   34.4   8.1   8.2 BiharNepal
Event name 101335G
time shift:     5.8396
half duration:   2.8619
latitude:       26.8371
longitude:      87.1862
depth:          28.5197
Mrr:      -1.168955e+23
Mtt:     -1.429835e+22
Mpp:     1.311939e+23
Mrt:      -6.404740e+22
Mrp:      1.003839e+23
Mtp:      1.578777e+23
PDE 1934 01 15 21 23 15.50  27   87.14   34.4   8.1   8.2 BiharNepal
Event name 101335G
time shift:     5.7675
half duration:   2.8691
latitude:       26.8288
longitude:      87.1854
depth:          28.2106
Mrr:      -1.177850e+23
Mtt:     -1.440715e+22
Mpp:     1.321921e+23
Mrt:      -6.453473e+22
Mrp:      9.455855e+22
Mtp:      1.487159e+23
PDE 1934 01 15 21 23 15.50  27   87.14   34.4   8.1   8.2 BiharNepal
Event name 101335G
time shift:     6.5247
half duration:   2.9009
latitude:       27.1791
longitude:      87.2107
depth:          41.1894
Mrr:      -1.217480e+23